data/radial_test/case136ma.m
function mpc = case136ma
%CASE136MA

%% MATPOWER Case Format : Version 2
mpc.version = '2';

%%-----  Power Flow Data  -----%%
%% system MVA base
mpc.baseMVA = 10;

%% bus data
%	bus_i	type	Pd	Qd	Gs	Bs	area	Vm	Va	baseKV	zone	Vmax	Vmin
mpc.bus = [
	1	3	0	0	0	0	1	1	0	13.8	1	1.05	0.95;
	2	1	0	0	0	0	1	1	0	13.8	1	1.05	0.95;
	3	1	0.04778	0.01901	0	0	1	1	0	13.8	1	1.05	0.95;
	4	1	0.04255	0.01693	0	0	1	1	0	13.8	1	1.05	0.95;
	5	1	0.08702	0.03462	0	0	1	1	0	13.8	1	1.05	0.95;
	6	1	0.31131	0.123855	0	0	1	1	0	13.8	1	1.05	0.95;
	7	1	0.148869	0.05923	0	0	1	1	0	13.8	1	1.05	0.95;
	8	1	0.238672	0.09496	0	0	1	1	0	13.8	1	1.05	0.95;
	9	1	0.0623	0.02479	0	0	1	1	0	13.8	1	1.05	0.95;
	10	1	0.124598	0.04957	0	0	1	1	0	13.8	1	1.05	0.95;
	11	1	0.140175	0.05577	0	0	1	1	0	13.8	1	1.05	0.95;
	12	1	0.116813	0.04647	0	0	1	1	0	13.8	1	1.05	0.95;
	13	1	0.249203	0.09915	0	0	1	1	0	13.8	1	1.05	0.95;
	14	1	0.291447	0.115952	0	0	1	1	0	13.8	1	1.05	0.95;
	15	1	0.30372	0.120835	0	0	1	1	0	13.8	1	1.05	0.95;
	16	1	0.215396	0.0857	0	0	1	1	0	13.8	1	1.05	0.95;
	17	1	0.198586	0.07901	0	0	1	1	0	13.8	1	1.05	0.95;
	18	1	0	0	0	0	1	1	0	13.8	1	1.05	0.95;
	19	1	0	0	0	0	1	1	0	13.8	1	1.05	0.95;
	20	1	0	0	0	0	1	1	0	13.8	1	1.05	0.95;
	21	1	0.03013	0.01473	0	0	1	1	0	13.8	1	1.05	0.95;
	22	1	0.230972	0.11292	0	0	1	1	0	13.8	1	1.05	0.95;
	23	1	0.06026	0.02946	0	0	1	1	0	13.8	1	1.05	0.95;
	24	1	0.230972	0.11292	0	0	1	1	0	13.8	1	1.05	0.95;
	25	1	0.120507	0.05892	0	0	1	1	0	13.8	1	1.05	0.95;
	26	1	0	0	0	0	1	1	0	13.8	1	1.05	0.95;
	27	1	0.05698	0.02786	0	0	1	1	0	13.8	1	1.05	0.95;
	28	1	0.364665	0.178281	0	0	1	1	0	13.8	1	1.05	0.95;
	29	1	0	0	0	0	1	1	0	13.8	1	1.05	0.95;
	30	1	0.124647	0.06094	0	0	1	1	0	13.8	1	1.05	0.95;
	31	1	0.05698	0.02786	0	0	1	1	0	13.8	1	1.05	0.95;
	32	1	0	0	0	0	1	1	0	13.8	1	1.05	0.95;
	33	1	0.08547	0.04179	0	0	1	1	0	13.8	1	1.05	0.95;
	34	1	0	0	0	0	1	1	0	13.8	1	1.05	0.95;
	35	1	0.396735	0.19396	0	0	1	1	0	13.8	1	1.05	0.95;
	36	1	0	0	0	0	1	1	0	13.8	1	1.05	0.95;
	37	1	0.181152	0.08856	0	0	1	1	0	13.8	1	1.05	0.95;
	38	1	0.242172	0.118395	0	0	1	1	0	13.8	1	1.05	0.95;
	39	1	0.07532	0.03682	0	0	1	1	0	13.8	1	1.05	0.95;
	40	1	0	0	0	0	1	1	0	13.8	1	1.05	0.95;
	41	1	0.00125	0.00053	0	0	1	1	0	13.8	1	1.05	0.95;
	42	1	0.00627	0.00266	0	0	1	1	0	13.8	1	1.05	0.95;
	43	1	0	0	0	0	1	1	0	13.8	1	1.05	0.95;
	44	1	0.11788	0.04997	0	0	1	1	0	13.8	1	1.05	0.95;
	45	1	0.06267	0.02657	0	0	1	1	0	13.8	1	1.05	0.95;
	46	1	0.172285	0.07303	0	0	1	1	0	13.8	1	1.05	0.95;
	47	1	0.458556	0.194388	0	0	1	1	0	13.8	1	1.05	0.95;
	48	1	0.262962	0.111473	0	0	1	1	0	13.8	1	1.05	0.95;
	49	1	0.235761	0.09994	0	0	1	1	0	13.8	1	1.05	0.95;
	50	1	0	0	0	0	1	1	0	13.8	1	1.05	0.95;
	51	1	0.109215	0.0463	0	0	1	1	0	13.8	1	1.05	0.95;
	52	1	0	0	0	0	1	1	0	13.8	1	1.05	0.95;
	53	1	0.07281	0.03087	0	0	1	1	0	13.8	1	1.05	0.95;
	54	1	0.258473	0.10957	0	0	1	1	0	13.8	1	1.05	0.95;
	55	1	0.06917	0.02932	0	0	1	1	0	13.8	1	1.05	0.95;
	56	1	0.02184	0.00926	0	0	1	1	0	13.8	1	1.05	0.95;
	57	1	0	0	0	0	1	1	0	13.8	1	1.05	0.95;
	58	1	0.02053	0.0087	0	0	1	1	0	13.8	1	1.05	0.95;
	59	1	0.150548	0.06382	0	0	1	1	0	13.8	1	1.05	0.95;
	60	1	0.220687	0.09355	0	0	1	1	0	13.8	1	1.05	0.95;
	61	1	0.09238	0.03916	0	0	1	1	0	13.8	1	1.05	0.95;
	62	1	0	0	0	0	1	1	0	13.8	1	1.05	0.95;
	63	1	0.226693	0.0961	0	0	1	1	0	13.8	1	1.05	0.95;
	64	1	0	0	0	0	1	1	0	13.8	1	1.05	0.95;
	65	1	0.294016	0.116974	0	0	1	1	0	13.8	1	1.05	0.95;
	66	1	0.08302	0.03303	0	0	1	1	0	13.8	1	1.05	0.95;
	67	1	0.08302	0.03303	0	0	1	1	0	13.8	1	1.05	0.95;
	68	1	0.10377	0.04129	0	0	1	1	0	13.8	1	1.05	0.95;
	69	1	0.176408	0.07018	0	0	1	1	0	13.8	1	1.05	0.95;
	70	1	0.08302	0.03303	0	0	1	1	0	13.8	1	1.05	0.95;
	71	1	0.217917	0.0867	0	0	1	1	0	13.8	1	1.05	0.95;
	72	1	0.02329	0.00927	0	0	1	1	0	13.8	1	1.05	0.95;
	73	1	0.00508	0.00202	0	0	1	1	0	13.8	1	1.05	0.95;
	74	1	0.07264	0.0289	0	0	1	1	0	13.8	1	1.05	0.95;
	75	1	0.40599	0.161523	0	0	1	1	0	13.8	1	1.05	0.95;
	76	1	0	0	0	0	1	1	0	13.8	1	1.05	0.95;
	77	1	0.100182	0.04247	0	0	1	1	0	13.8	1	1.05	0.95;
	78	1	0.142523	0.06042	0	0	1	1	0	13.8	1	1.05	0.95;
	79	1	0.09604	0.04071	0	0	1	1	0	13.8	1	1.05	0.95;
	80	1	0.300454	0.127366	0	0	1	1	0	13.8	1	1.05	0.95;
	81	1	0.141238	0.05987	0	0	1	1	0	13.8	1	1.05	0.95;
	82	1	0.279847	0.118631	0	0	1	1	0	13.8	1	1.05	0.95;
	83	1	0.08731	0.03701	0	0	1	1	0	13.8	1	1.05	0.95;
	84	1	0.243849	0.103371	0	0	1	1	0	13.8	1	1.05	0.95;
	85	1	0.24775	0.105025	0	0	1	1	0	13.8	1	1.05	0.95;
	86	1	0	0	0	0	1	1	0	13.8	1	1.05	0.95;
	87	1	0.08988	0.0381	0	0	1	1	0	13.8	1	1.05	0.95;
	88	1	1.13728	0.482108	0	0	1	1	0	13.8	1	1.05	0.95;
	89	1	0.458339	0.194296	0	0	1	1	0	13.8	1	1.05	0.95;
	90	1	0.385197	0.16329	0	0	1	1	0	13.8	1	1.05	0.95;
	91	1	0	0	0	0	1	1	0	13.8	1	1.05	0.95;
	92	1	0.07961	0.03375	0	0	1	1	0	13.8	1	1.05	0.95;
	93	1	0.08731	0.03701	0	0	1	1	0	13.8	1	1.05	0.95;
	94	1	0	0	0	0	1	1	0	13.8	1	1.05	0.95;
	95	1	0.074	0.03137	0	0	1	1	0	13.8	1	1.05	0.95;
	96	1	0.23205	0.09837	0	0	1	1	0	13.8	1	1.05	0.95;
	97	1	0.141819	0.06012	0	0	1	1	0	13.8	1	1.05	0.95;
	98	1	0	0	0	0	1	1	0	13.8	1	1.05	0.95;
	99	1	0.07645	0.03241	0	0	1	1	0	13.8	1	1.05	0.95;
	100	1	0	0	0	0	1	1	0	13.8	1	1.05	0.95;
	101	1	0.05132	0.02176	0	0	1	1	0	13.8	1	1.05	0.95;
	102	1	0.05987	0.02538	0	0	1	1	0	13.8	1	1.05	0.95;
	103	1	0.00907	0.00384	0	0	1	1	0	13.8	1	1.05	0.95;
	104	1	0.00209	0.00089	0	0	1	1	0	13.8	1	1.05	0.95;
	105	1	0.016735	0.00709	0	0	1	1	0	13.8	1	1.05	0.95;
	106	1	1.506522	0.638634	0	0	1	1	0	13.8	1	1.05	0.95;
	107	1	0.313023	0.132694	0	0	1	1	0	13.8	1	1.05	0.95;
	108	1	0.07983	0.03384	0	0	1	1	0	13.8	1	1.05	0.95;
	109	1	0.05132	0.02176	0	0	1	1	0	13.8	1	1.05	0.95;
	110	1	0	0	0	0	1	1	0	13.8	1	1.05	0.95;
	111	1	0.202435	0.08582	0	0	1	1	0	13.8	1	1.05	0.95;
	112	1	0.06082	0.02578	0	0	1	1	0	13.8	1	1.05	0.95;
	113	1	0.04562	0.01934	0	0	1	1	0	13.8	1	1.05	0.95;
	114	1	0	0	0	0	1	1	0	13.8	1	1.05	0.95;
	115	1	0.15707	0.06658	0	0	1	1	0	13.8	1	1.05	0.95;
	116	1	0	0	0	0	1	1	0	13.8	1	1.05	0.95;
	117	1	0.250148	0.106041	0	0	1	1	0	13.8	1	1.05	0.95;
	118	1	0	0	0	0	1	1	0	13.8	1	1.05	0.95;
	119	1	0.06981	0.02959	0	0	1	1	0	13.8	1	1.05	0.95;
	120	1	0.03207	0.0136	0	0	1	1	0	13.8	1	1.05	0.95;
	121	1	0.06108	0.02589	0	0	1	1	0	13.8	1	1.05	0.95;
	122	1	0	0	0	0	1	1	0	13.8	1	1.05	0.95;
	123	1	0.09462	0.04626	0	0	1	1	0	13.8	1	1.05	0.95;
	124	1	0.04986	0.02438	0	0	1	1	0	13.8	1	1.05	0.95;
	125	1	0.123164	0.06021	0	0	1	1	0	13.8	1	1.05	0.95;
	126	1	0.07835	0.0383	0	0	1	1	0	13.8	1	1.05	0.95;
	127	1	0.145475	0.07112	0	0	1	1	0	13.8	1	1.05	0.95;
	128	1	0.02137	0.01045	0	0	1	1	0	13.8	1	1.05	0.95;
	129	1	0.07479	0.03656	0	0	1	1	0	13.8	1	1.05	0.95;
	130	1	0.227926	0.111431	0	0	1	1	0	13.8	1	1.05	0.95;
	131	1	0.03561	0.01741	0	0	1	1	0	13.8	1	1.05	0.95;
	132	1	0.249295	0.121877	0	0	1	1	0	13.8	1	1.05	0.95;
	133	1	0.316722	0.154842	0	0	1	1	0	13.8	1	1.05	0.95;
	134	1	0.333817	0.163199	0	0	1	1	0	13.8	1	1.05	0.95;
	135	1	0.249295	0.121877	0	0	1	1	0	13.8	1	1.05	0.95;
	136	1	0	0	0	0	1	1	0	13.8	1	1.05	0.95;
];

%% generator data
%	bus	Pg	Qg	Qmax	Qmin	Vg	mBase	status	Pmax	Pmin	Pc1	Pc2	Qc1min	Qc1max	Qc2min	Qc2max	ramp_agc	ramp_10	ramp_30	ramp_q	apf
mpc.gen = [
	1	0	0	10	-10	1	100	1	10	0	0	0	0	0	0	0	0	0	0	0	0;
];

%% branch data
%	fbus	tbus	r	x	b	rateA	rateB	rateC	ratio	angle	status	angmin	angmax
mpc.branch = [
	1	2	0.0174359378	0.0402504726	0	100	100	100	0	0	1	-360	360;
	2	3	9.87187566e-05	0.0002273682	0	100	100	100	0	0	1	-360	360;
	3	4	0.0117223272	0.0270610166	0	100	100	100	0	0	1	-360	360;
	4	5	0.005221067	0.012052615	0	100	100	100	0	0	1	-360	360;
	5	6	0.0081763285	0.0188747112	0	100	100	100	0	0	1	-360	360;
	6	7	0.00857015333	0.019784184	0	100	100	100	0	0	1	-360	360;
	7	8	0.00600924176	0.0138715606	0	100	100	100	0	0	1	-360	360;
	7	9	0.00297994119	0.00297521529	0	100	100	100	0	0	1	-360	360;
	9	10	0.0273703004	0.0143971855	0	100	100	100	0	0	1	-360	360;
	9	11	0.00571151019	0.00570258349	0	100	100	100	0	0	1	-360	360;
	11	12	0.0209005461	0.0109940139	0	100	100	100	0	0	1	-360	360;
	11	13	0.0481747532	0.0165243646	0	100	100	100	0	0	1	-360	360;
	11	14	0.00620825457	0.00619880277	0	100	100	100	0	0	1	-360	360;
	14	15	0.0263747112	0.013873661	0	100	100	100	0	0	1	-360	360;
	14	16	0.00297994119	0.00297521529	0	100	100	100	0	0	1	-360	360;
	16	17	0.0154269061	0.00811489183	0	100	100	100	0	0	1	-360	360;
	1	18	0.0174359378	0.0402504726	0	100	100	100	0	0	1	-360	360;
	18	19	9.87187566e-05	0.0002273682	0	100	100	100	0	0	1	-360	360;
	19	20	0.0117223272	0.0270610166	0	100	100	100	0	0	1	-360	360;
	20	21	0.00571361059	0.013189456	0	100	100	100	0	0	1	-360	360;
	21	22	0.0373230414	0.0196324302	0	100	100	100	0	0	1	-360	360;
	21	23	0.0095552405	0.0220583911	0	100	100	100	0	0	1	-360	360;
	23	24	0.0159241756	0.00837639151	0	100	100	100	0	0	1	-360	360;
	23	25	0.00128071834	0.0029563117	0	100	100	100	0	0	1	-360	360;
	25	26	0.00236399916	0.005457887	0	100	100	100	0	0	1	-360	360;
	26	27	0.000985087167	0.0022742071	0	100	100	100	0	0	1	-360	360;
	27	28	0.00620825457	0.00619880277	0	100	100	100	0	0	1	-360	360;
	28	29	0.00124186095	0.00123976055	0	100	100	100	0	0	1	-360	360;
	29	30	0.00995274102	0.0052352447	0	100	100	100	0	0	1	-360	360;
	30	31	0.0209005461	0.0109940139	0	100	100	100	0	0	1	-360	360;
	29	32	0.00297994119	0.00297521529	0	100	100	100	0	0	1	-360	360;
	32	33	0.00497637051	0.00261762235	0	100	100	100	0	0	1	-360	360;
	33	34	0.0218961353	0.0115175383	0	100	100	100	0	0	1	-360	360;
	34	35	0.00597143457	0.00314114682	0	100	100	100	0	0	1	-360	360;
	32	36	0.00397290485	0.00396712875	0	100	100	100	0	0	1	-360	360;
	36	37	0.0194076875	0.0102089897	0	100	100	100	0	0	1	-360	360;
	37	38	0.0139340475	0.00732934258	0	100	100	100	0	0	1	-360	360;
	36	39	0.00297994119	0.00297521529	0	100	100	100	0	0	1	-360	360;
	1	40	0.0174359378	0.0402504726	0	100	100	100	0	0	1	-360	360;
	40	41	0.00620615417	0.014326297	0	100	100	100	0	0	1	-360	360;
	41	42	0.15558076	0.0533648393	0	100	100	100	0	0	1	-360	360;
	41	43	9.87187566e-05	0.0002273682	0	100	100	100	0	0	1	-360	360;
	43	44	0.0036447175	0.0084141987	0	100	100	100	0	0	1	-360	360;
	44	45	0.0427966814	0.0225120773	0	100	100	100	0	0	1	-360	360;
	44	46	0.00334908633	0.007731569	0	100	100	100	0	0	1	-360	360;
	46	47	0.00689561017	0.0159183995	0	100	100	100	0	0	1	-360	360;
	47	48	0.00325089267	0.0075042008	0	100	100	100	0	0	1	-360	360;
	48	49	0.00600924176	0.0138715606	0	100	100	100	0	0	1	-360	360;
	49	50	0.0148991808	0.0148766016	0	100	100	100	0	0	1	-360	360;
	50	51	0.0148991808	0.0148766016	0	100	100	100	0	0	1	-360	360;
	49	52	0.00236399916	0.005457887	0	100	100	100	0	0	1	-360	360;
	52	53	0.00137891199	0.0031836799	0	100	100	100	0	0	1	-360	360;
	53	54	0.00315217391	0.0072768326	0	100	100	100	0	0	1	-360	360;
	54	55	0.00157634951	0.0036384163	0	100	100	100	0	0	1	-360	360;
	55	56	0.00108380592	0.0025015753	0	100	100	100	0	0	1	-360	360;
	53	57	0.00571361059	0.013189456	0	100	100	100	0	0	1	-360	360;
	57	58	0.0134362529	0.00706784289	0	100	100	100	0	0	1	-360	360;
	58	59	0.0218961353	0.0115175383	0	100	100	100	0	0	1	-360	360;
	59	60	0.0263747112	0.013873661	0	100	100	100	0	0	1	-360	360;
	60	61	0.0174175593	0.00916194077	0	100	100	100	0	0	1	-360	360;
	61	62	0.0109478051	0.00575876917	0	100	100	100	0	0	1	-360	360;
	48	63	0.00728943499	0.0168278723	0	100	100	100	0	0	1	-360	360;
	1	64	0.000393824827	0.0009094728	0	100	100	100	0	0	1	-360	360;
	64	65	0.0141850452	0.0327462718	0	100	100	100	0	0	1	-360	360;
	65	66	0.0200955682	0.0463904642	0	100	100	100	0	0	1	-360	360;
	66	67	0.0173377442	0.0400231044	0	100	100	100	0	0	1	-360	360;
	67	68	0.0172390254	0.0397957362	0	100	100	100	0	0	1	-360	360;
	68	69	0.00896450326	0.0206936568	0	100	100	100	0	0	1	-360	360;
	69	70	0.0293604285	0.0154442344	0	100	100	100	0	0	1	-360	360;
	69	71	0.00305398026	0.0070494644	0	100	100	100	0	0	1	-360	360;
	71	72	0.0368252468	0.0193709305	0	100	100	100	0	0	1	-360	360;
	72	73	0.0537450116	0.0282708465	0	100	100	100	0	0	1	-360	360;
	71	74	0.00354652384	0.0081868305	0	100	100	100	0	0	1	-360	360;
	74	75	0.0694980046	0.0238379542	0	100	100	100	0	0	1	-360	360;
	1	76	0.00059126234	0.0013642092	0	100	100	100	0	0	1	-360	360;
	76	77	0.0383196807	0.0884604075	0	100	100	100	0	0	1	-360	360;
	77	78	0.011821046	0.0272883848	0	100	100	100	0	0	1	-360	360;
	78	79	0.0109346776	0.025242071	0	100	100	100	0	0	1	-360	360;
	79	80	0.00246271792	0.0056852552	0	100	100	100	0	0	1	-360	360;
	80	81	0.0325299307	0.0324810964	0	100	100	100	0	0	1	-360	360;
	81	82	0.017879122	0.0178523419	0	100	100	100	0	0	1	-360	360;
	82	83	0.0298582231	0.0157062592	0	100	100	100	0	0	1	-360	360;
	82	84	0.00571151019	0.00570258349	0	100	100	100	0	0	1	-360	360;
	84	85	0.0298582231	0.0157062592	0	100	100	100	0	0	1	-360	360;
	1	86	0.00059126234	0.0013642092	0	100	100	100	0	0	1	-360	360;
	86	87	0.0219675488	0.0507115102	0	100	100	100	0	0	1	-360	360;
	87	88	0.00551302247	0.00716288595	0	100	100	100	0	0	1	-360	360;
	87	89	0.0230508297	0.0532125604	0	100	100	100	0	0	1	-360	360;
	89	90	0.00394875026	0.0013542323	0	100	100	100	0	0	1	-360	360;
	90	91	0.00403906742	0.0093236715	0	100	100	100	0	0	1	-360	360;
	91	92	0.0174359378	0.0402504726	0	100	100	100	0	0	1	-360	360;
	92	93	0.00443289225	0.0102331443	0	100	100	100	0	0	1	-360	360;
	93	94	0.00699432892	0.0161457677	0	100	100	100	0	0	1	-360	360;
	94	95	0.0153959252	0.0153728208	0	100	100	100	0	0	1	-360	360;
	95	96	0.0114224953	0.0114056921	0	100	100	100	0	0	1	-360	360;
	96	97	0.0139056921	0.0138852132	0	100	100	100	0	0	1	-360	360;
	94	98	0.00541797942	0.0125073514	0	100	100	100	0	0	1	-360	360;
	98	99	0.00709252258	0.0163731359	0	100	100	100	0	0	1	-360	360;
	1	100	0.000492543583	0.001136841	0	100	100	100	0	0	1	-360	360;
	100	101	0.0088657845	0.0204662886	0	100	100	100	0	0	1	-360	360;
	101	102	0.00620615417	0.014326297	0	100	100	100	0	0	1	-360	360;
	102	103	0.120042008	0.0411751733	0	100	100	100	0	0	1	-360	360;
	102	104	0.0239377232	0.0552593993	0	100	100	100	0	0	1	-360	360;
	104	105	0.0365469439	0.0843672548	0	100	100	100	0	0	1	-360	360;
	105	106	0.0240359168	0.0554867675	0	100	100	100	0	0	1	-360	360;
	106	107	0.0106584751	0.0138484562	0	100	100	100	0	0	1	-360	360;
	107	108	0.0112098299	0.0145646923	0	100	100	100	0	0	1	-360	360;
	108	109	0.028863159	0.0151827347	0	100	100	100	0	0	1	-360	360;
	109	110	0.0283653644	0.0149207099	0	100	100	100	0	0	1	-360	360;
	108	111	0.00238920395	0.00310386473	0	100	100	100	0	0	1	-360	360;
	111	112	0.0248818526	0.0130886368	0	100	100	100	0	0	1	-360	360;
	112	113	0.0452851292	0.0238206259	0	100	100	100	0	0	1	-360	360;
	113	114	0.0298582231	0.0157062592	0	100	100	100	0	0	1	-360	360;
	109	115	0.0408060281	0.0214650284	0	100	100	100	0	0	1	-360	360;
	115	116	0.0567307288	0.0298414199	0	100	100	100	0	0	1	-360	360;
	110	117	0.0577257929	0.0303649443	0	100	100	100	0	0	1	-360	360;
	117	118	0.0248818526	0.0130886368	0	100	100	100	0	0	1	-360	360;
	105	119	0.0169433942	0.0391136316	0	100	100	100	0	0	1	-360	360;
	119	120	0.00768378492	0.0177373451	0	100	100	100	0	0	1	-360	360;
	120	121	0.00650178534	0.0150089267	0	100	100	100	0	0	1	-360	360;
	1	122	0.00059126234	0.0013642092	0	100	100	100	0	0	1	-360	360;
	122	123	0.034084226	0.0786819996	0	100	100	100	0	0	1	-360	360;
	123	124	0.00236399916	0.005457887	0	100	100	100	0	0	1	-360	360;
	124	125	0.0276412518	0.00948120143	0	100	100	100	0	0	1	-360	360;
	124	126	0.00108380592	0.0025015753	0	100	100	100	0	0	1	-360	360;
	126	127	0.0278675698	0.0146592102	0	100	100	100	0	0	1	-360	360;
	126	128	0.00512234825	0.0118252468	0	100	100	100	0	0	1	-360	360;
	128	129	0.00620615417	0.014326297	0	100	100	100	0	0	1	-360	360;
	128	130	0.00728943499	0.0168278723	0	100	100	100	0	0	1	-360	360;
	130	131	0.0022658055	0.0052305188	0	100	100	100	0	0	1	-360	360;
	131	132	0.00482671708	0.0111426171	0	100	100	100	0	0	1	-360	360;
	132	133	0.00847195967	0.0195568158	0	100	100	100	0	0	1	-360	360;
	133	134	0.0198655745	0.0198356438	0	100	100	100	0	0	1	-360	360;
	134	135	0.0208590632	0.0208275572	0	100	100	100	0	0	1	-360	360;
	135	136	0.0153959252	0.0153728208	0	100	100	100	0	0	1	-360	360;
	8	74	0.00689561017	0.0159183995	0	100	100	100	0	0	0	-360	360;
	10	25	0.0139340475	0.00732934258	0	100	100	100	0	0	0	-360	360;
	16	84	0.00744959042	0.00743856333	0	100	100	100	0	0	0	-360	360;
	39	136	0.00446964923	0.00446282294	0	100	100	100	0	0	0	-360	360;
	26	52	0.00236399916	0.005457887	0	100	100	100	0	0	0	-360	360;
	51	97	0.00744959042	0.00743856333	0	100	100	100	0	0	0	-360	360;
	56	99	0.00744959042	0.00743856333	0	100	100	100	0	0	0	-360	360;
	63	121	0.00206889309	0.0047752573	0	100	100	100	0	0	0	-360	360;
	67	80	0.00679689141	0.0156910313	0	100	100	100	0	0	0	-360	360;
	80	132	0.00088636841	0.0020468389	0	100	100	100	0	0	0	-360	360;
	85	136	0.0174175593	0.00916194077	0	100	100	100	0	0	0	-360	360;
	92	105	0.00744959042	0.00743856333	0	100	100	100	0	0	0	-360	360;
	91	130	0.00403906742	0.0093236715	0	100	100	100	0	0	0	-360	360;
	91	104	0.00403906742	0.0093236715	0	100	100	100	0	0	0	-360	360;
	93	105	0.00403906742	0.0093236715	0	100	100	100	0	0	0	-360	360;
	93	133	0.00403906742	0.0093236715	0	100	100	100	0	0	0	-360	360;
	97	121	0.0139056921	0.0138852132	0	100	100	100	0	0	0	-360	360;
	111	48	0.0260953581	0.0339041168	0	100	100	100	0	0	0	-360	360;
	127	77	0.00895767696	0.00471172023	0	100	100	100	0	0	0	-360	360;
	129	78	0.00275834909	0.0063673598	0	100	100	100	0	0	0	-360	360;
	136	99	0.0153959252	0.0153728208	0	100	100	100	0	0	0	-360	360;
];

%%-----  OPF Data  -----%%
%% generator cost data
%	1	startup	shutdown	n	x1	y1	...	xn	yn
%	2	startup	shutdown	n	c(n-1)	...	c0
mpc.gencost = [
	2	0	0	3	0	20	0;
];
